Circuit: * C:\Users\morri\OneDrive\Documents\Projects\Solenoid_Driver\LTSpice\Solenoid_Driver.asc

Instance "m:q1:1": Width narrower than recommended for a level 3 MOSFET.
Direct Newton iteration for .op point succeeded.

Date: Sat May 27 09:10:20 2023
Total elapsed time: 0.076 seconds.

tnom = 27
temp = 27
method = modified trap
totiter = 2765
traniter = 2724
tranpoints = 1263
accept = 1198
rejected = 65
matrix size = 29
fillins = 5
solver = Normal
Avg thread counts: 1.5/3.7/2.1/1.5
Matrix Compiler1: 1.62 KB object code size  0.3/0.2/[0.1]
Matrix Compiler2: off  [0.2]/0.3/0.2

